Hi Guys,
    I am venkatesh.
        This is my 1st commit....
        
    This is my second commit....


This is new branch!!!!!!
New line....
